/*---------------------------------------------------------------------------*\
| =========                 |                                                 |
| \\      /  F ield         | OpenFOAM: The Open Source CFD Toolbox           |
|  \\    /   O peration     | Version:  3.0.0                                 |
|   \\  /    A nd           | Web:      www.OpenFOAM.org                      |
|    \\/     M anipulation  |                                                 |
\*---------------------------------------------------------------------------*/
Build  : 3.0.0-8b097f6d8dd9
Exec   : gmshToFoam main.msh
Date   : Dec 14 2015
Time   : 18:08:38
Host   : "lordvon-XPS-8300"
PID    : 4660
Case   : /home/lordvon/Desktop/mewo/wind_tunnel
nProcs : 1
sigFpe : Enabling floating point exception trapping (FOAM_SIGFPE).
fileModificationChecking : Monitoring run-time modified files using timeStampMaster
allowSystemOperations : Allowing user-supplied system call operations

// * * * * * * * * * * * * * * * * * * * * * * * * * * * * * * * * * * * * * //
Create time

Starting to read mesh format at line 2
Read format version 2.2  ascii 0

Starting to read physical names at line 5
Physical names:6
    Surface 1	inlet
    Surface 2	outlet
    Surface 3	tunnel
    Surface 4	wing
    Surface 5	front_and_back
    Volume 6	volume

Starting to read points at line 14
Vertices to be read:62110
Vertices read:62110

Starting to read cells at line 62127
Cells to be read:184914

Mapping region 5 to Foam patch 0
Mapping region 3 to Foam patch 1
Mapping region 1 to Foam patch 2
Mapping region 2 to Foam patch 3
Mapping region 4 to Foam patch 4
Mapping region 6 to Foam cellZone 0
Cells:
    total:61398
    hex  :0
    prism:61398
    pyr  :0
    tet  :0

CellZones:
Zone	Size
    0	61398

Skipping tag  at line 247044
Patch 0 gets name front_and_back
Patch 1 gets name tunnel
Patch 2 gets name inlet
Patch 3 gets name outlet
Patch 4 gets name wing

--> FOAM Warning : 
    From function polyMesh::polyMesh(... construct from shapes...)
    in file meshes/polyMesh/polyMeshFromShapeMesh.C at line 625
    Found 123516 undefined faces in mesh; adding to default patch.
Finding faces of patch 0
Finding faces of patch 1
Finding faces of patch 2
Finding faces of patch 3
Finding faces of patch 4

FaceZones:
Zone	Size

Writing zone 0 to cellZone volume and cellSet
End

